
*** ChampSim Multicore Out-of-Order Simulator ***

Warmup Instructions: 1000000
Simulation Instructions: 10000000
Number of CPUs: 1
LLC sets: 2048
LLC ways: 16
Off-chip DRAM Size: 4096 MB Channels: 1 Width: 64-bit Data Rate: 3200 MT/s

CPU 0 runs /home/hkucs/tyl/ChampSimServer/dpc3_traces/657.xz_s-2302B.champsimtrace.xz
CPU 0 Bimodal branch predictor
[L1D_MSHR] return_data instr_id: 0 cannot find a matching entry! full_addr: 28e837d22dc0 address: a3a0df48b7 event: 53952 current: 53953
bimodal-no-ipcp_mix_time_absolute_classify-ipcp_mix_time_absolute_classify-no-lru-1core: src/cache.cc:1707: virtual void CACHE::return_data(PACKET*): Assertion `0' failed.
